


 10  9  0  0000  0  0  0  0  0999 V2000
    0.0000    2.5797    0.0000 Cl  0  5  0  0  0  0  0  0  0  0  0
    3.1106    0.3100    0.0000 O   0  0  0  0  0  0  0  0  0  0  0
    3.9766    2.8100    0.0000 N   0  0  0  0  0  0  0  0  0  0  0
    4.4766    4.3488    0.0000 N   0  3  0  0  0  0  0  0  0  0  0
    3.9766    1.8100    0.0000 C   0  0  0  0  0  0  0  0  0  0  0
    4.7856    3.3978    0.0000 C   0  0  0  0  0  0  0  0  0  0  0
    3.1676    3.3978    0.0000 C   0  0  0  0  0  0  0  0  0  0  0
    3.4766    4.3488    0.0000 C   0  0  0  0  0  0  0  0  0  0  0
    3.1106    1.3100    0.0000 C   0  0  0  0  0  0  0  0  0  0  0
    5.0644    5.1579    0.0000 C   0  0  0  0  0  0  0  0  0  0  0
  2  9  1  0
  3  5  1  0
  3  6  1  0
  3  7  1  0
  4  6  2  0
  4  8  1  0
  4 10  1  0
  5  9  1  0
  7  8  2  0
M  CHG  2   1  -1   4   1
M  END

> <PUBCHEM_BONDANNOTATIONS>
3  6  8
3  7  8
4  6  8
4  8  8
7  8  8

> <StdInChI>
InChI=1S/C6H11N2O.ClH/c1-7-2-3-8(6-7)4-5-9;/h2-3,6,9H,4-5H2,1H3;1H/q+1;/p-1

> <StdInChIKey>
QVRFXIWAQRNWEX-UHFFFAOYSA-M

> <AuxInfo>
1/1/N:10,8,7,5,9,6,4,3,2;1/CRV:7+1;/rA:21nCl-ONN+CCCCCCHHHHHHHHHHH/rB:;;;s3;s3d4;s3;s4d7;s2s5;s4;s5;s5;s6;s7;s8;s9;s9;s10;s10;s10;s2;/rC:0,2.5797,0;3.1106,.31,0;3.9766,2.81,0;4.4766,4.3488,0;3.9766,1.81,0;4.7856,3.3978,0;3.1676,3.3978,0;3.4766,4.3488,0;3.1106,1.31,0;5.0644,5.1579,0;4.1887,1.2274,0;4.5872,1.9177,0;5.3753,3.2062,0;2.5779,3.2062,0;3.1122,4.8504,0;2.8985,1.8926,0;2.5,1.2023,0;5.4288,5.6594,0;4.5628,5.5223,0;5.566,4.7934,0;2.5736,0,0;

> <Formula>
C6 H11 Cl N2 O

> <Mw>
162.6173

> <SMILES>
[Cl-].O([H])C([H])([H])C([H])([H])N1C([H])=C([H])[N+](C([H])([H])[H])=C1[H]

> <CSID>
9674073

$$$$
