


 16 17  0  0000  0  0  0  0  0999 V2000
    7.1962   -0.5000    0.0000 N   0  3  0  0  0  0  0  0  0  0  0
    5.4641   -0.5000    0.0000 C   0  0  0  0  0  0  0  0  0  0  0
    4.5981   -1.0000    0.0000 C   0  0  0  0  0  0  0  0  0  0  0
    6.3301   -1.0000    0.0000 C   0  0  0  0  0  0  0  0  0  0  0
    3.7321   -0.5000    0.0000 C   0  0  0  0  0  0  0  0  0  0  0
    2.8660   -1.0000    0.0000 C   0  0  0  0  0  0  0  0  0  0  0
    8.0622   -1.0000    0.0000 C   0  0  0  0  0  0  0  0  0  0  0
    8.9282   -0.5000    0.0000 C   0  0  0  0  0  0  0  0  0  0  0
    7.1962    0.5000    0.0000 C   0  0  0  0  0  0  0  0  0  0  0
    8.9282    0.5000    0.0000 C   0  0  0  0  0  0  0  0  0  0  0
    8.0622    1.0000    0.0000 C   0  0  0  0  0  0  0  0  0  0  0
    2.0000   -0.5000    0.0000 C   0  0  0  0  0  0  0  0  0  0  0
    9.8221   -1.0347    0.0000 C   0  0  0  0  0  0  0  0  0  0  0
    9.8221    1.0347    0.0000 C   0  0  0  0  0  0  0  0  0  0  0
   10.7282   -0.5208    0.0000 C   0  0  0  0  0  0  0  0  0  0  0
   10.7282    0.5208    0.0000 C   0  0  0  0  0  0  0  0  0  0  0
  1  4  1  0
  1  7  2  0
  1  9  1  0
  2  3  1  0
  2  4  1  0
  3  5  1  0
  5  6  1  0
  6 12  1  0
  7  8  1  0
  8 10  1  0
  8 13  2  0
  9 11  2  0
 10 11  1  0
 10 14  2  0
 13 15  1  0
 14 16  1  0
 15 16  2  0
M  CHG  1   1   1
M  END

> <PUBCHEM_BONDANNOTATIONS>
1  7  8
1  9  8
10  11  8
10  14  8
13  15  8
14  16  8
15  16  8
7  8  8
8  10  8
8  13  8
9  11  8

> <StdInChI>
InChI=1S/C15H20N/c1-2-3-4-7-11-16-12-10-14-8-5-6-9-15(14)13-16/h5-6,8-10,12-13H,2-4,7,11H2,1H3/q+1

> <StdInChIKey>
RQLZZCGLNJCDEK-UHFFFAOYSA-N

> <AuxInfo>
1/0/N:12,6,5,3,16,15,2,14,13,11,4,9,7,10,8,1/CRV:16+1/rA:36nN+CCCCCCCCCCCCCCCHHHHHHHHHHHHHHHHHHHH/rB:;s2;s1s2;s3;s5;d1;s7;s1;s8;d9s10;s6;d8;d10;s13;s14d15;s2;s2;s3;s3;s4;s4;s5;s5;s6;s6;s7;s9;s11;s12;s12;s12;s13;s14;s15;s16;/rC:7.1962,-.5,0;5.4641,-.5,0;4.5981,-1,0;6.3301,-1,0;3.7321,-.5,0;2.866,-1,0;8.0622,-1,0;8.9282,-.5,0;7.1962,.5,0;8.9282,.5,0;8.0622,1,0;2,-.5,0;9.8221,-1.0347,0;9.8221,1.0347,0;10.7282,-.5208,0;10.7282,.5208,0;5.0656,-.0251,0;5.8626,-.0251,0;4.9966,-1.4749,0;4.1995,-1.4749,0;6.7287,-1.4749,0;5.9316,-1.4749,0;3.3335,-.0251,0;4.1306,-.0251,0;2.4675,-1.4749,0;3.2646,-1.4749,0;8.0622,-1.62,0;6.6592,.81,0;8.0622,1.62,0;2.31,.0369,0;1.4631,-.19,0;1.69,-1.0369,0;9.815,-1.6546,0;9.815,1.6546,0;11.2639,-.8329,0;11.2639,.8329,0;

> <Formula>
C15 H20 N

> <Mw>
214.326

> <SMILES>
[N+]1(C([H])=C([H])C2=C([H])C([H])=C([H])C([H])=C2C=1[H])C([H])([H])C([H])([H])C([H])([H])C([H])([H])C([H])([H])C([H])([H])[H]

> <CSID>
365975

$$$$
