


  9  9  0  0000  0  0  0  0  0999 V2000
    2.8660    0.0761    0.0000 N   0  0  0  0  0  0  0  0  0  0  0
    3.3660    1.6149    0.0000 N   0  3  0  0  0  0  0  0  0  0  0
    3.6750    0.6639    0.0000 C   0  0  0  0  0  0  0  0  0  0  0
    2.8660   -0.9239    0.0000 C   0  0  0  0  0  0  0  0  0  0  0
    2.0570    0.6639    0.0000 C   0  0  0  0  0  0  0  0  0  0  0
    2.3660    1.6149    0.0000 C   0  0  0  0  0  0  0  0  0  0  0
    3.9538    2.4239    0.0000 C   0  0  0  0  0  0  0  0  0  0  0
    2.0000   -1.4239    0.0000 C   0  0  0  0  0  0  0  0  0  0  0
    2.0000   -2.4239    0.0000 C   0  0  0  0  0  0  0  0  0  0  0
  1  3  1  0
  1  4  1  0
  1  5  1  0
  2  3  2  0
  2  6  1  0
  2  7  1  0
  4  8  1  0
  5  6  2  0
  8  9  2  0
M  CHG  1   2   1
M  END

> <PUBCHEM_BONDANNOTATIONS>
1  3  8
1  5  8
2  3  8
2  6  8
5  6  8

> <StdInChI>
InChI=1S/C7H11N2/c1-3-4-9-6-5-8(2)7-9/h3,5-7H,1,4H2,2H3/q+1

> <StdInChIKey>
WWVMHGUBIOZASN-UHFFFAOYSA-N

> <AuxInfo>
1/0/N:9,7,8,4,6,5,3,2,1/CRV:8+1/rA:20nNN+CCCCCCCHHHHHHHHHHH/rB:;s1d2;s1;s1;s2d5;s2;s4;d8;s3;s4;s4;s5;s6;s7;s7;s7;s8;s9;s9;/rC:2.866,.0761,0;3.366,1.6149,0;3.675,.6639,0;2.866,-.9239,0;2.057,.6639,0;2.366,1.6149,0;3.9538,2.4239,0;2,-1.4239,0;2,-2.4239,0;4.2647,.4723,0;3.4766,-.8163,0;3.0781,-1.5065,0;1.4674,.4723,0;2.0016,2.1165,0;3.4522,2.7884,0;4.3182,2.9255,0;4.4554,2.0595,0;1.4631,-1.1139,0;1.4631,-2.7339,0;2.5369,-2.7339,0;

> <Formula>
C7 H11 N2

> <Mw>
123.1756

> <SMILES>
N1(C([H])=C([H])[N+](C([H])([H])[H])=C1[H])C([H])([H])C([H])=C([H])[H]

> <CSID>
9404503

$$$$
