


 11 11  0  0000  0  0  0  0  0999 V2000
    3.7321    0.0000    0.0000 N   0  3  0  0  0  0  0  0  0  0  0
    2.8660   -1.5000    0.0000 C   0  0  0  0  0  0  0  0  0  0  0
    3.7321   -1.0000    0.0000 C   0  0  0  0  0  0  0  0  0  0  0
    2.8660   -2.5000    0.0000 C   0  0  0  0  0  0  0  0  0  0  0
    2.8660    0.5000    0.0000 C   0  0  0  0  0  0  0  0  0  0  0
    4.5981    0.5000    0.0000 C   0  0  0  0  0  0  0  0  0  0  0
    2.0000   -3.0000    0.0000 C   0  0  0  0  0  0  0  0  0  0  0
    3.7321    2.0000    0.0000 C   0  0  0  0  0  0  0  0  0  0  0
    2.8660    1.5000    0.0000 C   0  0  0  0  0  0  0  0  0  0  0
    4.5981    1.5000    0.0000 C   0  0  0  0  0  0  0  0  0  0  0
    3.7321    3.0000    0.0000 C   0  0  0  0  0  0  0  0  0  0  0
  1  3  1  0
  1  5  2  0
  1  6  1  0
  2  3  1  0
  2  4  1  0
  4  7  1  0
  5  9  1  0
  6 10  2  0
  8  9  2  0
  8 10  1  0
  8 11  1  0
M  CHG  1   1   1
M  END

> <PUBCHEM_BONDANNOTATIONS>
1  5  8
1  6  8
5  9  8
6  10  8
8  10  8
8  9  8

> <StdInChI>
InChI=1S/C10H16N/c1-3-4-7-11-8-5-10(2)6-9-11/h5-6,8-9H,3-4,7H2,1-2H3/q+1

> <StdInChIKey>
NNLHWTTWXYBJBQ-UHFFFAOYSA-N

> <AuxInfo>
1/0/N:7,11,4,2,9,10,3,5,6,8,1/E:(5,6)(8,9)/CRV:11+1/rA:27nN+CCCCCCCCCCHHHHHHHHHHHHHHHH/rB:;s1s2;s2;d1;s1;s4;;s5d8;d6s8;s8;s2;s2;s3;s3;s4;s4;s5;s6;s7;s7;s7;s9;s10;s11;s11;s11;/rC:3.7321,0,0;2.866,-1.5,0;3.7321,-1,0;2.866,-2.5,0;2.866,.5,0;4.5981,.5,0;2,-3,0;3.7321,2,0;2.866,1.5,0;4.5981,1.5,0;3.7321,3,0;2.654,-.9174,0;2.2554,-1.6077,0;4.3426,-.8923,0;3.9441,-1.5826,0;3.0781,-3.0826,0;3.4766,-2.3923,0;2.3291,.19,0;5.135,.19,0;2.31,-3.5369,0;1.4631,-3.31,0;1.69,-2.4631,0;2.3291,1.81,0;5.135,1.81,0;4.3521,3,0;3.7321,3.62,0;3.1121,3,0;

> <Formula>
C10 H16 N

> <Mw>
150.2407

> <SMILES>
[N+]1(C([H])=C([H])C(C([H])([H])[H])=C([H])C=1[H])C([H])([H])C([H])([H])C([H])([H])C([H])([H])[H]

> <CSID>
4302786

$$$$
